[Format]      =  4.0
[Frequency]   =  0
[Precision]   =  1e-008
[MinAngle]    =  30
[DoSmartMesh] =  1
[Depth]       =  4
[LengthUnits] =  millimeters
[ProblemType] =  planar
[Coordinates] =  cartesian
[ACSolver]    =  0
[PrevType]    =  0
[PrevSoln]    =  ""
[Comment]     =  "Add comments here."
[PointProps]   = 0
[BdryProps]   = 1
  <BeginBdry>
    <BdryName> = "Boundary"
    <BdryType> = 0
    <A_0> = 0
    <A_1> = 0
    <A_2> = 0
    <Phi> = 0
    <c0> = 0
    <c0i> = 0
    <c1> = 0
    <c1i> = 0
    <Mu_ssd> = 0
    <Sigma_ssd> = 0
    <innerangle> = 0
    <outerangle> = 0
  <EndBdry>
[BlockProps]  = 4
  <BeginBlock>
    <BlockName> = "1018 Steel"
    <Mu_x> = 529
    <Mu_y> = 529
    <H_c> = 0
    <H_cAngle> = 0
    <J_re> = 0
    <J_im> = 0
    <Sigma> = 5.7999999999999998
    <d_lam> = 0
    <Phi_h> = 20
    <Phi_hx> = 0
    <Phi_hy> = 0
    <LamType> = 0
    <LamFill> = 1
    <NStrands> = 0
    <WireD> = 0
    <BHPoints> = 13
      0	0
      0.25030000000000002	238.73249999999999
      0.92500000000000004	795.77499999999998
      1.25	1591.55
      1.3899999999999999	2387.3249999999998
      1.5249999999999999	3978.875
      1.71	7957.75
      1.8700000000000001	15915.5
      1.9550000000000001	23873.25
      2.02	39788.75
      2.1099999999999999	79577.5
      2.2250000000000001	159155
      2.4300000000000002	318310
  <EndBlock>
  <BeginBlock>
    <BlockName> = "NdFeB 10 MGOe (Bonded)"
    <Mu_x> = 1.2230000000000001
    <Mu_y> = 1.2230000000000001
    <H_c> = 445634
    <H_cAngle> = 0
    <J_re> = 0
    <J_im> = 0
    <Sigma> = 0
    <d_lam> = 0
    <Phi_h> = 0
    <Phi_hx> = 0
    <Phi_hy> = 0
    <LamType> = 0
    <LamFill> = 1
    <NStrands> = 0
    <WireD> = 0
    <BHPoints> = 0
  <EndBlock>
  <BeginBlock>
    <BlockName> = "24 AWG"
    <Mu_x> = 1
    <Mu_y> = 1
    <H_c> = 0
    <H_cAngle> = 0
    <J_re> = 0
    <J_im> = 0
    <Sigma> = 58
    <d_lam> = 0
    <Phi_h> = 0
    <Phi_hx> = 0
    <Phi_hy> = 0
    <LamType> = 3
    <LamFill> = 1
    <NStrands> = 1
    <WireD> = 0.510714027632857
    <BHPoints> = 0
  <EndBlock>
  <BeginBlock>
    <BlockName> = "Air"
    <Mu_x> = 1
    <Mu_y> = 1
    <H_c> = 0
    <H_cAngle> = 0
    <J_re> = 0
    <J_im> = 0
    <Sigma> = 0
    <d_lam> = 0
    <Phi_h> = 0
    <Phi_hx> = 0
    <Phi_hy> = 0
    <LamType> = 0
    <LamFill> = 1
    <NStrands> = 0
    <WireD> = 0
    <BHPoints> = 0
  <EndBlock>
[CircuitProps]  = 1
  <BeginCircuit>
    <CircuitName> = "Bobine"
    <TotalAmps_re> = 0
    <TotalAmps_im> = 0
    <CircuitType> = 1
  <EndCircuit>
[NumPoints] = 42
-7.9999999999999982	29	0	1
-7.9999999999999964	45	0	1
8	45	0	1
7.9999999999999982	29.000000000000011	0	1
-23.93000000000001	-18.074999999999999	0	1
23.93	-18.075000000000003	0	1
-22.5	-17.000000000000004	0	1
22.499999999999996	-17.000000000000004	0	1
-24.899999999999995	-18.800000000000001	0	1
24.899999999999999	-18.800000000000001	0	1
-23.931212079807811	-18.073409059855862	0	1
23.931212079807821	-18.073409059855869	0	1
-37.299999999999997	26.199999999999999	0	0
-27.600000000000001	16.199999999999999	0	0
-5.5	-31.5	0	0
-5.5	-33	0	0
-7.5	-33.5	0	0
-25	-33.5	0	0
-25	-49	0	0
-50	-65	0	0
-50	20	0	0
37.299999999999997	26.199999999999999	0	0
27.600000000000001	16.199999999999999	0	0
5.5	-31.5	0	0
5.5	-33	0	0
7.5	-33.5	0	0
25	-33.5	0	0
25	-49	0	0
50	-65	0	0
50	20	0	0
-24.5	-48.5	0	0
-24.5	-34	0	0
24.5	-34	0	0
24.5	-48.5	0	0
-24.5	-80	0	0
-24.5	-65.5	0	0
24.5	-65.5	0	0
24.5	-80	0	0
100	-100	0	0
100	100	0	0
-100	100	0	0
-100	-100	0	0
[NumSegments] = 35
0	1	-1	0	0	0
1	2	-1	0	0	0
2	3	-1	0	0	0
8	10	-1	0	0	0
10	6	-1	0	0	0
9	11	-1	0	0	0
11	7	-1	0	0	0
12	13	-1	0	0	0
14	15	-1	0	0	0
15	16	-1	0	0	0
16	17	-1	0	0	0
17	18	-1	0	0	0
19	20	-1	0	0	0
20	12	-1	0	0	0
21	22	-1	0	0	0
23	24	-1	0	0	0
24	25	-1	0	0	0
25	26	-1	0	0	0
26	27	-1	0	0	0
28	29	-1	0	0	0
29	21	-1	0	0	0
18	27	-1	0	0	0
19	28	-1	0	0	0
30	31	-1	0	0	0
31	32	-1	0	0	0
32	33	-1	0	0	0
30	33	-1	0	0	0
34	35	-1	0	0	0
35	36	-1	0	0	0
36	37	-1	0	0	0
34	37	-1	0	0	0
38	39	-1	1	0	0
39	40	-1	1	0	0
40	41	-1	1	0	0
38	41	-1	1	0	0
[NumArcSegments] = 8
0	10	111.99617671637446	1	0	0	0	1
5	11	0.0038232836255590623	1	0	0	0	1
6	7	106	1	0	0	0	1
8	9	106	1	0	0	0	1
10	4	0.003823283625559064	1	0	0	0	1
11	3	111.99617671637446	1	0	0	0	1
13	14	110.59999999999999	1	0	0	0	1
23	22	110.59999999999999	1	0	0	0	1
[NumHoles] = 0
[NumBlockLabels] = 6
0	0	1	-1	0	0	1	1	0
0	-29.600000000000001	2	-1	0	0	1	1	0	"theta"
80	0	4	-1	0	0	0	1	0
-0.29999999999999999	-40.5	3	-1	1	0	0	1000	0
2.7999999999999998	-72.700000000000003	3	-1	1	0	0	-1000	0
19.699999999999999	-55.899999999999999	1	-1	0	0	0	1	0
